Circuit: * C:\Users\nickr\Documents\Projects\ESP32 Guitar Tuner\Schematics\guitar_tuner_preamp.asc

Direct Newton iteration for .op point succeeded.

Date: Mon Apr 04 13:52:40 2022
Total elapsed time: 0.093 seconds.

tnom = 27
temp = 27
method = modified trap
totiter = 2673
traniter = 2670
tranpoints = 1336
accept = 1139
rejected = 197
matrix size = 10
fillins = 2
solver = Normal
Matrix Compiler1: 508 bytes object code size  0.1/0.1/[0.0]
Matrix Compiler2: 778 bytes object code size  0.1/0.1/[0.1]

